#Description: 3D test problem for testing chemical reactions
#             based on chemistry from Hammond and Lichtner, WRR, 2010

SIMULATION
  SIMULATION_TYPE SUBSURFACE
  PROCESS_MODELS
    SUBSURFACE_FLOW flow
      MODE RICHARDS
    /
    SUBSURFACE_TRANSPORT transport
      MODE GIRT
    /
  /
END

SUBSURFACE
#=========================== numerical methods ================================
NUMERICAL_METHODS FLOW
  TIMESTEPPER
    TS_ACCELERATION 8
  /
END

NUMERICAL_METHODS TRANSPORT
  NEWTON_SOLVER
     #NUMERICAL_JACOBIAN
#    ITOL_UPDATE 1.d0
     RTOL 1.d-22
#    MAXIMUM_NUMBER_OF_ITERATIONS 15
#    CONVERGENCE_INFO
  /
END

#=========================== flow mode ========================================

#=========================== chemistry ========================================
CHEMISTRY
  PRIMARY_SPECIES
  #DIFF_SCALE(aq)
  #DECAY_SCALEB(aq)
  SiO2(aq)
  /
  IMMOBILE_SPECIES
    SiO2_im
  /
  REACTION_SANDBOX
    DISTRIBUTED_WASTE_PACKAGE
      MOBILE_NAME SiO2(aq)   # dissolved species  
      IMMOBILE_NAME SiO2_im  # immobile species
      DIFFUSION_SCALE_MINERAL DIFF_SCALE(s)   # volume fraction of given mineral is used to scale given DIFFUSION_RATE
      DECAY_SCALE_MINERAL DECAY_SCALE(s)
      DIFFUSION_RATE 1.d-7   # [s^-1]
      DECAY_RATE 2.d-7
    /
  /
  MINERALS
    DIFF_SCALE(s)
    DECAY_SCALE(s)
  /

  MINERAL_KINETICS
    DIFF_SCALE(s)
      RATE_CONSTANT 0.d0
    /
    DECAY_SCALE(s)
      RATE_CONSTANT 0.d0
    /
#    SiO2(am)
#      RATE_CONSTANT 0.d0
#    /

  /
  #DATABASE ./hanford.dat
  DATABASE ./lambda.dat
  LOG_FORMULATION
  #ACTIVITY_COEFFICIENTS NEWTON_ITERATION
  MOLAL
  OUTPUT
    ALL
    TOTAL
  #  MINERAL_SATURATION_INDEX
  /
END

#REFERENCE_TEMPERATURE  15.0   # st. C

#=========================== discretization ===================================
GRID
  TYPE STRUCTURED
  ORIGIN 0.d0 0.d0 0.d0
  NXYZ 5 4 3
  DXYZ
    10. 11. 12. 13. 14.
    13. 12. 11. 10.
    15. 20. 25.
  /
END

#=========================== fluid properties =================================
FLUID_PROPERTY
  DIFFUSION_COEFFICIENT 1.d-15
END

#=========================== datasets =========================================


DATASET initial_SiO2_im
  HDF5_DATASET_NAME InitImmobile
  FILENAME input_fields.h5
END

DATASET dwp_diff_rate
  HDF5_DATASET_NAME DiffusionRate
  FILENAME input_fields.h5
END

DATASET dwp_decay_rate
  HDF5_DATASET_NAME DecayRate
  FILENAME input_fields.h5
END

#DATASET Permeability
#  HDF5_DATASET_NAME Permeability
#  FILENAME input_fields.h5
#END

#=========================== material properties ==============================
MATERIAL_PROPERTY soil1
  ID 1
  POROSITY 0.25d0 #DATASET Porosity
  TORTUOSITY 1.d0
  CHARACTERISTIC_CURVES sf1
  PERMEABILITY
    PERM_X 1.d-12
    PERM_Y 1.d-12
    PERM_Z 1.d-13
  /
END


#=========================== characteristic curves ============================
CHARACTERISTIC_CURVES sf1
  SATURATION_FUNCTION VAN_GENUCHTEN
    M 0.286
    ALPHA  1.9401d-4
    LIQUID_RESIDUAL_SATURATION 0.115
  /
  PERMEABILITY_FUNCTION MUALEM_VG_LIQ
    M 0.286
    LIQUID_RESIDUAL_SATURATION 0.115
  /
END

#=========================== Kamil ===================================
EOS WATER                               # Zrusena stlacitelnost 
  DENSITY CONSTANT   999.75d0 kg/m^3    # 10 °C
  VISCOSITY CONSTANT 1.308d-3 Pa-s      # dynamic viscosity (10 °C)
END

#=========================== output options ===================================
OUTPUT
#  TIMES d 0.001 0.01 0.1 1. 10.
  PERIODIC TIME 10 d
  FORMAT VTK
  VARIABLES
    LIQUID_PRESSURE
    LIQUID_SATURATION
#   PERMEABILITY_X
#   PERMEABILITY_Y
#   PERMEABILITY_Z
    POROSITY
  /
 VELOCITY_AT_CENTER
END

#=========================== times ============================================
TIME
  FINAL_TIME 100.d0 d
  INITIAL_TIMESTEP_SIZE 1.d-6 d
  MAXIMUM_TIMESTEP_SIZE 10.d0 d
END

#=========================== regions ==========================================
REGION all
  COORDINATES
    0.d0 0.d0 0.d0
    60.d0 46.d0 60.d0
  /
END

REGION west
  FACE WEST
  COORDINATES
    0.d0 0.d0 0.d0
    0.d0 46.d0 60.d0
  /
END

REGION east
  FACE EAST
  COORDINATES
    60.d0 0.d0 0.d0
    60.d0 46.d0 60.d0
  /
END

#=========================== flow conditions ==================================
FLOW_CONDITION initial
  TYPE
    LIQUID_PRESSURE HYDROSTATIC
  /
  DATUM 0.d0 0.d0 0.d0
  LIQUID_PRESSURE 1.d7 ! Pa
END

FLOW_CONDITION east
  TYPE
    LIQUID_PRESSURE HYDROSTATIC
  /
  DATUM 0.d0 0.d0 0.d0
  LIQUID_PRESSURE 1.d7 ! Pa
END

FLOW_CONDITION west
  TYPE
    LIQUID_PRESSURE HYDROSTATIC
  /
  DATUM 0.d0 0.d0 0.d0
  LIQUID_PRESSURE 1.d7 ! Pa
END

#=========================== transport conditions =============================
TRANSPORT_CONDITION initial_groundwater
  TYPE DIRICHLET_ZERO_GRADIENT
  CONSTRAINT_LIST
    0.d0 initial_groundwater
  /
END

TRANSPORT_CONDITION groundwater
  TYPE DIRICHLET_ZERO_GRADIENT
  CONSTRAINT_LIST
    0.d0 groundwater
  /
END

#=========================== transport constraints ============================
CONSTRAINT initial_groundwater
  CONCENTRATIONS
    #A(aq)    1.d-40           T
    SiO2(aq) 1.d-30           T
  /
  # [mol/m^3 bulk]
  IMMOBILE     
    #SiO2_im  0.1 
    SiO2_im DATASET initial_SiO2_im
  /  
  MINERALS
    DIFF_SCALE(s) DATASET dwp_diff_rate 1.d0 # volume fraction used as the diffucion rate; sorption arrea set to 1.d0 in orcer to aviod numerical errors.
    DECAY_SCALE(s) DATASET dwp_decay_rate 1.d0 # volume fraction used as the diffucion rate; sorption arrea set to 1.d0 in orcer to aviod numerical errors.
  /
END

CONSTRAINT groundwater
  CONCENTRATIONS
    #A(aq)    1.d-40           T
    SiO2(aq) 1.d-30           T
  /
END

#=========================== condition couplers ===============================
# initial condition
INITIAL_CONDITION
  FLOW_CONDITION initial
  TRANSPORT_CONDITION initial_groundwater
  REGION all
END

# west boundary condition
BOUNDARY_CONDITION west
  FLOW_CONDITION east
  TRANSPORT_CONDITION groundwater
  REGION west
END

# east boundary condition
BOUNDARY_CONDITION east
  FLOW_CONDITION east
  TRANSPORT_CONDITION groundwater
  REGION east
END


#=========================== stratigraphy couplers ============================

STRATA
  REGION all
  MATERIAL soil1
END

END_SUBSURFACE
